# PM3 Opt=ModRedundant NoSymm

TS_step1

0 1
  C     -1.9702660      3.4340880      0.1985370
  C     -2.8077830      2.9043920     -0.9044180
  C     -2.8748720      1.6818660     -1.4405710
  C     -2.1465810      0.4901040     -1.0416690
  N     -2.5695380     -0.1927690      0.0891050
  C     -2.0441780     -1.4850710      0.4176800
  O     -1.4599820     -2.2310490     -0.3474620
  O     -2.3725030     -1.8027320      1.7011010
  C     -1.8460990     -3.0026360      2.2331590
  H     -0.7510160     -3.0027580      2.2216030
  H     -2.2278160     -3.8792380      1.6995880
  H     -2.2223690     -2.9802130      3.2589370
  H     -2.9781080      0.3519860      0.8194980
  C     -0.9094830      2.5386480      0.8263900
  C     -0.1369080      1.7902170     -0.1811300
  H     -1.3721530      1.8375150      1.5543060
  H     -0.2334410      3.1711500      1.4408980
  C      0.7086790      0.6805580      0.2155880
  H      0.1070730      2.3084690     -1.1200650
  O      0.7283880      0.1765900      1.3401780
  N      1.5915450      0.1193490     -0.7934120
  H     -1.5516050     -0.0547820     -1.8020430
  H     -2.6564440      3.7896350      0.9953600
  H     -1.4777140      4.3462540     -0.2005300
  H     -3.4425330      3.6771370     -1.3646430
  H     -3.5097150      1.5300410     -2.3267210
  C      1.0968970      0.2231020     -2.1847920
  H      1.8350310     -0.1867530     -2.8844810
  H      0.9354130      1.2874940     -2.4216620
  H      0.1333520     -0.3008460     -2.3362380
  C      2.2371900     -1.1759650     -0.4903980
  H      2.7450500     -1.1161300      0.4808750
  H      2.9921440     -1.3906860     -1.2583340
  H      1.5239260     -2.0129050     -0.4577910

B 4 15 F
B 1 14 S 80 0.05

