# PM3 Opt NoSymm

reaktant2

0 1
C         -3.96100        0.19636        1.35463
C         -2.85070        0.64573        0.75344
H         -4.15739       -0.86625        1.44343
H         -4.70035        0.87965        1.76511
C         -2.61325        2.11095        0.61473
H         -2.15011       -0.05813        0.33145
O         -3.54277        2.89550        0.80107
N         -1.33728        2.52751        0.26073
C         -0.19338        1.66390        0.00534
H         -0.25406        0.72347        0.55447
H          0.72190        2.17337        0.32261
H         -0.14318        1.46181       -1.06844
C         -1.14726        3.93219       -0.06783
H         -1.99518        4.55117        0.23629
H         -1.01742        4.02077       -1.15069
H         -0.25016        4.30059        0.43869

