16
E=     -0.041637747
  C     -3.9903760      0.1383000      1.2311110
  C     -2.7905150      0.6717960      1.0227640
  H     -4.1206390     -0.9035790      1.5098220
  H     -4.9178990      0.6995930      1.1400920
  C     -2.6111910      2.0982380      0.6505800
  H     -1.8741930      0.0692430      1.1258370
  O     -3.5342830      2.8961330      0.5644220
  N     -1.2679330      2.5903360      0.4731590
  C     -0.2610610      1.6568370     -0.0777850
  H     -0.3920110      0.6533460      0.3576570
  H      0.7424480      2.0152310      0.1873870
  H     -0.3177420      1.5700720     -1.1727860
  C     -1.1024620      3.9769990     -0.0178000
  H     -1.7094480      4.6634330      0.5870100
  H     -1.3949710      4.0922920     -1.0716710
  H     -0.0493130      4.2703220      0.0852310
