34
E=     -0.191353504
  C     -2.0306890      3.4902800      0.0317940
  C     -3.0710330      2.5806840     -0.5123080
  C     -2.8562670      1.2929450     -0.7823240
  C     -1.5414310      0.6057130     -0.5613640
  N     -1.6167400     -0.3341690      0.5963200
  C     -2.2586780     -1.5852820      0.3934860
  O     -2.3695580     -2.1925530     -0.6604420
  O     -2.6826160     -2.1016510      1.5869740
  C     -3.1886330     -3.4196280      1.5917560
  H     -2.4381730     -4.1441590      1.2588120
  H     -4.0892540     -3.5094280      0.9752960
  H     -3.4285740     -3.5724530      2.6469710
  H     -1.8398640      0.1259270      1.4547000
  C     -0.8252730      2.7470250      0.5851430
  C     -0.4022430      1.6289040     -0.3668110
  H     -1.0512650      2.3390720      1.5911490
  H      0.0150720      3.4524270      0.7373980
  C      0.8979410      0.9718690      0.0994610
  H     -0.2159510      2.1020550     -1.3656860
  O      1.2527120      0.9477760      1.2660850
  N      1.8197520      0.4846670     -0.9013650
  H     -1.2977760     -0.0064550     -1.4753180
  H     -2.4721510      4.1302210      0.8209930
  H     -1.7227410      4.1811520     -0.7800370
  H     -4.0509070      3.0323020     -0.7083090
  H     -3.6559850      0.6674020     -1.1984340
  C      1.2759010     -0.3010430     -2.0325130
  H      1.2523920     -1.3800840     -1.8171070
  H      1.9160820     -0.1393120     -2.9099280
  H      0.2516870      0.0116060     -2.2927780
  C      3.1157790     -0.0495750     -0.4201690
  H      3.5966760      0.6807210      0.2434430
  H      3.7732190     -0.2140460     -1.2840260
  H      3.0121690     -0.9988490      0.1255810
34
E=      0.000000000
  C     -2.0306890      3.4902800      0.0317940
  C     -3.0710330      2.5806840     -0.5123080
  C     -2.8562670      1.2929450     -0.7823240
  C     -1.5414310      0.6057130     -0.5613640
  N     -1.6167400     -0.3341690      0.5963200
  C     -2.2586780     -1.5852820      0.3934860
  O     -2.3695580     -2.1925530     -0.6604420
  O     -2.6826160     -2.1016510      1.5869740
  C     -3.1886330     -3.4196280      1.5917560
  H     -2.4381730     -4.1441590      1.2588120
  H     -4.0892540     -3.5094280      0.9752960
  H     -3.4285740     -3.5724530      2.6469710
  H     -1.8398640      0.1259270      1.4547000
  C     -0.8252730      2.7470250      0.5851430
  C     -0.4022430      1.6289040     -0.3668110
  H     -1.0512650      2.3390720      1.5911490
  H      0.0150720      3.4524270      0.7373980
  C      0.8979410      0.9718690      0.0994610
  H     -0.2159510      2.1020550     -1.3656860
  O      1.2527120      0.9477760      1.2660850
  N      1.8197520      0.4846670     -0.9013650
  H     -1.2977760     -0.0064550     -1.4753180
  H     -2.4721510      4.1302210      0.8209930
  H     -1.7227410      4.1811520     -0.7800370
  H     -4.0509070      3.0323020     -0.7083090
  H     -3.6559850      0.6674020     -1.1984340
  C      1.2759010     -0.3010430     -2.0325130
  H      1.2523920     -1.3800840     -1.8171070
  H      1.9160820     -0.1393120     -2.9099280
  H      0.2516870      0.0116060     -2.2927780
  C      3.1157790     -0.0495750     -0.4201690
  H      3.5966760      0.6807210      0.2434430
  H      3.7732190     -0.2140460     -1.2840260
  H      3.0121690     -0.9988490      0.1255810
34
E=      0.000000000
  C     -2.0306890      3.4902800      0.0317940
  C     -3.0710330      2.5806840     -0.5123080
  C     -2.8562670      1.2929450     -0.7823240
  C     -1.5414310      0.6057130     -0.5613640
  N     -1.6167400     -0.3341690      0.5963200
  C     -2.2586780     -1.5852820      0.3934860
  O     -2.3695580     -2.1925530     -0.6604420
  O     -2.6826160     -2.1016510      1.5869740
  C     -3.1886330     -3.4196280      1.5917560
  H     -2.4381730     -4.1441590      1.2588120
  H     -4.0892540     -3.5094280      0.9752960
  H     -3.4285740     -3.5724530      2.6469710
  H     -1.8398640      0.1259270      1.4547000
  C     -0.8252730      2.7470250      0.5851430
  C     -0.4022430      1.6289040     -0.3668110
  H     -1.0512650      2.3390720      1.5911490
  H      0.0150720      3.4524270      0.7373980
  C      0.8979410      0.9718690      0.0994610
  H     -0.2159510      2.1020550     -1.3656860
  O      1.2527120      0.9477760      1.2660850
  N      1.8197520      0.4846670     -0.9013650
  H     -1.2977760     -0.0064550     -1.4753180
  H     -2.4721510      4.1302210      0.8209930
  H     -1.7227410      4.1811520     -0.7800370
  H     -4.0509070      3.0323020     -0.7083090
  H     -3.6559850      0.6674020     -1.1984340
  C      1.2759010     -0.3010430     -2.0325130
  H      1.2523920     -1.3800840     -1.8171070
  H      1.9160820     -0.1393120     -2.9099280
  H      0.2516870      0.0116060     -2.2927780
  C      3.1157790     -0.0495750     -0.4201690
  H      3.5966760      0.6807210      0.2434430
  H      3.7732190     -0.2140460     -1.2840260
  H      3.0121690     -0.9988490      0.1255810
