# PM3 Opt NoSymm

reaktant 1

0 1
C         -2.41748        4.37497        0.08190
C         -3.51819        3.65471       -0.16529
C         -3.64973        2.22540        0.00531
C         -2.66575        1.32954       -0.14815
N         -2.88108       -0.01652       -0.01320
C         -1.91219       -0.97511       -0.13929
O         -0.72472       -0.77824       -0.35405
O         -2.48316       -2.19806        0.01520
C         -1.56877       -3.28860       -0.10605
H         -0.91882       -3.32983        0.77306
H         -0.97672       -3.21132       -1.02379
H         -2.15064       -4.21338       -0.15293
H         -2.42277        5.45135       -0.05933
H         -1.49095        3.92738        0.42607
H         -4.42105        4.17222       -0.48556
H         -3.80802       -0.36566        0.18716
H         -1.64730        1.62533       -0.39390
H         -4.65932        1.88835        0.23195

