18
E=     -0.088498744
  C     -2.3434250      4.2210440     -0.1470820
  C     -3.5552750      3.6654430     -0.1510860
  C     -3.7783830      2.2364600     -0.0148940
  C     -2.7570550      1.3712960      0.1200580
  N     -2.9725980     -0.0226410      0.3307960
  C     -1.9149690     -0.9305470      0.0419250
  O     -0.7240440     -0.6788490     -0.0290950
  O     -2.4131030     -2.1990920     -0.0818020
  C     -1.4895920     -3.2558970     -0.2383400
  H     -0.8177190     -3.3378180      0.6223830
  H     -0.9040120     -3.1480280     -1.1573540
  H     -2.1445400     -4.1286160     -0.2997550
  H     -2.1799390      5.2882700     -0.2500350
  H     -1.4369950      3.6237810     -0.0385530
  H     -4.4555160      4.2814120     -0.2600810
  H     -3.8959070     -0.3425580      0.1283720
  H     -1.7087270      1.7229220      0.1303730
  H     -4.8248620      1.9059500     -0.0267190
